Version 4
SHEET 1 1192 680
WIRE 160 128 80 128
WIRE 320 128 224 128
WIRE 80 144 80 128
WIRE 320 176 320 128
WIRE 224 192 224 176
WIRE 224 256 224 240
WIRE 80 288 80 224
WIRE 320 288 320 256
WIRE 320 288 80 288
WIRE 80 304 80 288
FLAG 80 304 0
FLAG 224 256 0
SYMBOL Misc\\EuropeanResistor 304 160 R0
SYMATTR InstName R1
SYMATTR Value 5
SYMBOL Misc\\SCR 160 144 R270
SYMATTR InstName U1
SYMATTR Value TN5015H-6T
SYMBOL voltage 80 128 M0
WINDOW 123 0 0 Left 0
WINDOW 39 0 0 Left 0
SYMATTR InstName V1
SYMATTR Value SINE(0 325 50)
SYMBOL voltage 224 144 R0
WINDOW 123 0 0 Left 0
WINDOW 39 0 0 Left 0
SYMATTR InstName V2
SYMATTR Value PULSE(0 5 5m 1n 1n 1m 20m)
TEXT -56 320 Left 2 !.tran 60m
TEXT -96 392 Left 2 !.inc C:\\Users\\carlbo_a\\AppData\\Local\\LTspice\\st_high-temperature_scr_pspice\\st_high-temperature_scr.lib
