Version 4
SHEET 1 1192 680
WIRE 160 128 80 128
WIRE 288 128 224 128
WIRE 320 128 288 128
WIRE 80 144 80 128
WIRE 320 176 320 128
WIRE 224 192 224 176
WIRE 288 272 288 128
WIRE 288 272 224 272
WIRE 80 288 80 224
WIRE 320 288 320 256
WIRE 320 288 80 288
WIRE 80 304 80 288
FLAG 80 304 0
SYMBOL Misc\\signal 80 128 M0
WINDOW 123 0 0 Left 0
WINDOW 39 0 0 Left 0
SYMATTR InstName U11
SYMATTR Value SINE(0 325 50)
SYMBOL Misc\\EuropeanResistor 304 160 R0
SYMATTR InstName R1
SYMATTR Value 5
SYMBOL Misc\\SCR 160 144 R270
SYMATTR InstName U1
SYMATTR Value TN6050HP-12
SYMBOL Misc\\signal 224 176 R0
SYMATTR InstName U111
SYMATTR Value PULSE(0 5 5ms 1n 1n 1m 20m)
TEXT -56 320 Left 2 !.tran 60m
TEXT -96 392 Left 2 !.inc C:\\Users\\carlbo_a\\AppData\\Local\\LTspice\\st_high-temperature_scr_pspice\\st_high-temperature_scr.lib
