Version 4
SHEET 1 880 680
WIRE 160 128 80 128
WIRE 288 128 240 128
WIRE 80 144 80 128
WIRE 288 160 288 128
WIRE 80 240 80 224
WIRE 288 240 288 224
WIRE 288 240 80 240
WIRE 80 256 80 240
FLAG 80 256 0
SYMBOL diode 272 160 R0
SYMATTR InstName D1
SYMATTR Value RFN5BGE6S
SYMBOL Misc\\signal 80 128 M0
WINDOW 123 0 0 Left 0
WINDOW 39 0 0 Left 0
SYMATTR InstName V1
SYMATTR Value SINE(0 5 10)
SYMBOL Misc\\EuropeanResistor 256 112 R90
WINDOW 0 5 56 VBottom 2
WINDOW 3 27 56 VTop 2
SYMATTR InstName R1
SYMATTR Value 100k
TEXT -96 280 Left 2 !.tran 1
